5
Properties=species:S:1:pos:R:3:forces:R:3 energy=-3129.5681133326943 pbc="F F F"
C       -3.39688740       0.53967010       0.00460282      -0.01340137      -0.14808166       0.08077053
O       -2.08031976       0.68314294      -0.44876624      -0.04187674      -0.00055308      -0.01503104
H       -1.37845513       0.59830276       0.23490682       0.00557456      -0.00798964       0.01092584
H       -4.00280331       1.36122894      -0.35925480      -0.01885282      -0.00208050      -0.02363322
H       -3.86689878      -0.46705164       0.20435591       0.06855637       0.15870489      -0.05303210
