 9
  Energy=-97191.3564254 Properties=species:S:1:pos:R:3:forces:R:3
  C -0.2161     0.383454   0.373037  20.6927   -5.79758   48.0831 
  C  0.350325   0.8106    -0.960099  19.0741  -45.6685   -15.4247 
  O -0.0932569 -1.07753    0.52357  -25.6572   18.5513    -1.71641
  H  0.349465   0.810199   1.39163  -27.7321  -10.1113   -61.7132 
  H -1.27296    0.679169   0.406791  -2.43743   0.366053   9.30402
  H -0.298937   1.17559   -1.78152   -1.1991   -8.59706   13.1081 
  H  1.07352    1.51199   -0.739556  36.639    56.3618     4.36814
  H  1.05098   -0.0143825 -1.32549  -26.6575   11.4965     2.26089
  H -1.02219   -1.28851    0.732807   7.35796 -16.5673     1.80011

